5tq3:7GZ:4001:B
  SciTegic06061712563D

 27 31  0  0  0  0            999 V2000
    6.1140   52.3210   35.6180 C   0  0
    4.2910   50.2420   35.5670 C   0  0
    4.1720   51.2830   34.6640 C   0  0
    5.4060   49.0570   37.4380 C   0  0
    4.6130   47.8460   39.3630 C   0  0
    7.4810   42.9310   40.3950 C   0  0
    8.4770   42.0080   40.1000 C   0  0
    5.3220   50.2190   36.5090 C   0  0
    6.0590   44.6080   40.5250 C   0  0
    6.9550   51.7560   38.9250 C   0  0
    7.3740   51.3270   37.5380 C   0  0
    6.2430   51.2780   36.5340 C   0  0
    5.0870   52.3220   34.6870 C   0  0
    6.3550   48.0500   37.2390 C   0  0
    6.4400   46.9540   38.0830 C   0  0
    5.5690   46.8340   39.1620 C   0  0
    4.5260   48.9470   38.5170 C   0  0
    3.9020   47.4880   40.4610 N   0  0
    4.3350   46.3060   40.9830 N   0  0
    5.3550   45.8570   40.2320 C   0  0
    7.1120   44.1290   39.8080 N   0  0
    8.5850   40.8820   40.9030 C   0  0
    7.7170   40.6860   41.9750 C   0  0
    6.7240   41.6120   42.2640 C   0  0
    6.6060   42.7490   41.4640 C   0  0
    5.7140   43.8200   41.5310 N   0  0
    4.9840   53.3490   33.7930 O   0  0
  2  3  2  0
  6  7  1  0
  2  8  1  0
  4  8  1  0
 10 11  1  0
  1 12  1  0
  8 12  2  0
 11 12  1  0
  1 13  2  0
  3 13  1  0
  4 14  1  0
 14 15  2  0
  5 16  2  0
 15 16  1  0
  4 17  2  0
  5 17  1  0
  5 18  1  0
 18 19  1  0
  9 20  1  0
 16 20  1  0
 19 20  2  0
  6 21  1  0
  9 21  2  0
  7 22  2  0
 22 23  1  0
 23 24  2  0
  6 25  2  0
 24 25  1  0
  9 26  1  0
 25 26  1  0
 13 27  1  0
M  END
> <Cavity_ID>
14832413

> <CHAIN_CODE>
B

> <CAVITY_NUMBER>
1

> <SMALL_MOL_CONF_ID>
1969358

> <LIG_CHAIN_CODE>
B

> <LIG_RES_NUMBER>
4001

> <LIG_RES_CODE>
7GZ

> <MOLECULE_INCHI_AUX_INFO>
AuxInfo=1/1/N:10,11,22,23,7,24,14,3,15,2,1,17,12,4,13,8,16,6,25,5,20,9,21,26,18,19,27/E:(3,4)(5,6)(18,19)(23,24)/rA:27CCCCCCCCCCCCCCCCCNNCNCCCCNO/rB:;d-2;;;;s6;s2s4;;;s10;s1d-8s11;d-1s3;s4;d-14;d-5s15
;d+4s5;s5;s18;s9s16d+19;s6d+9;d-7;s22;d-23;d-6s24;s9s25;s13;/rC:6.114,52.321,35.618;4.291,50.242,35.567;4.172,51.283,34.664;5.406,49.057,37.438;4.613,47.846,39.363;7.481,42.931,40.395;8.477,42.008,40.
1;5.322,50.219,36.509;6.059,44.608,40.525;6.955,51.756,38.925;7.374,51.327,37.538;6.243,51.278,36.534;5.087,52.322,34.687;6.355,48.05,37.239;6.44,46.954,38.083;5.569,46.834,39.162;4.526,48.947,38.517;
3.902,47.488,40.461;4.335,46.306,40.983;5.355,45.857,40.232;7.112,44.129,39.808;8.585,40.882,40.903;7.717,40.686,41.975;6.724,41.612,42.264;6.606,42.749,41.464;5.714,43.82,41.531;4.984,53.349,33.793;

> <PDB_CODE>
5tq3

> <TITLE>
DESIGN AND SYNTHESIS OF A PAN-JAK KINASE INHIBITOR CLINICAL CANDIDATE (PF-06263276) SUITABLE FOR THE TREATMENT OF INFLAMMATORY DISEASES OF THE LUNGS AND SKIN

> <Name>
5tq3:7GZ:4001:B

$$$$
5tq4:7GY:4000:A
  SciTegic06061712563D

 21 23  0  0  0  0            999 V2000
    5.9825   51.9782   35.3717 C   0  0
    4.1239   49.9493   35.6574 C   0  0
    3.9425   50.9173   34.6836 C   0  0
    5.4092   48.8483   37.4647 C   0  0
    4.6034   47.5637   39.3395 C   0  0
    5.2426   49.9691   36.4945 C   0  0
    6.2359   44.3558   40.4440 C   0  0
    7.1559   51.8983   38.5221 C   0  0
    7.3923   51.1171   37.2484 C   0  0
    6.1769   51.0090   36.3555 C   0  0
    4.8792   51.9281   34.5337 C   0  0
    6.4365   47.9110   37.3103 C   0  0
    6.5475   46.8090   38.1445 C   0  0
    5.6255   46.6124   39.1701 C   0  0
    4.4925   48.6728   38.5063 C   0  0
    3.8499   47.1340   40.3829 N   0  0
    4.3159   45.9582   40.8967 N   0  0
    5.4007   45.5894   40.1957 C   0  0
    7.2527   44.1414   39.7716 O   0  0
    5.8472   43.5418   41.4178 N   0  0
    4.7361   52.8573   33.5410 O   0  0
  2  3  1  0
  2  6  2  0
  4  6  1  0
  8  9  1  0
  1 10  2  0
  6 10  1  0
  9 10  1  0
  1 11  1  0
  3 11  2  0
  4 12  2  0
 12 13  1  0
  5 14  1  0
 13 14  2  0
  4 15  1  0
  5 15  2  0
  5 16  1  0
 16 17  1  0
  7 18  1  0
 14 18  1  0
 17 18  2  0
  7 19  2  0
  7 20  1  0
 11 21  1  0
M  END
> <CAVITY_ID>
14326185

> <CAVITY_NUMBER>
1

> <SMALL_MOL_CONF_ID>
1873872

> <LIG_CHAIN_CODE>
A

> <LIG_RES_NUMBER>
4000

> <LIG_RES_CODE>
7GY

> <MOLECULE_INCHI_AUX_INFO>
AuxInfo=1/1/N:8,9,12,3,13,2,1,15,10,4,11,6,14,5,18,7,20,16,17,21,19/rA:21CCCCCCCCCCCCCCCNNCONO/rB:;s2;;;d+2s4;;;s8;d-1s6s9;s1d-3;d+4;s12;s5d-13;s4d-5;s5;s16;s7s14d+17;d7;s7;s11;/rC:16.494,-11.306,30.3
83;14.675,-11.588,28.318;14.474,-10.617,29.285;15.983,-13.391,27.237;15.204,-15.263,25.932;15.794,-12.424,28.357;16.899,-16.357,22.753;17.672,-14.455,30.317;17.922,-13.179,29.544;16.708,-12.287,29.415
;15.391,-10.469,30.314;17.028,-13.233,26.32;17.161,-14.064,25.218;16.244,-15.09,25.001;15.071,-14.433,27.041;14.46,-16.306,25.485;14.949,-16.816,24.317;16.04,-16.113,23.971;17.919,-15.683,22.56;16.527
,-17.329,21.929;15.229,-9.479,31.243;

> <PDB_CODE>
5tq4

> <TITLE>
DESIGN AND SYNTHESIS OF A PAN-JAK KINASE INHIBITOR CLINICAL CANDIDATE (PF-06263276) SUITABLE FOR INHALED AND TOPICAL DELIVERY FOR THE TREATMENT OF INFLAMMATORY DISEASES OF THE LUNGS AND SKIN

> <Name>
5tq4:7GY:4000:A

> <atname>

$$$$
4e4m:0NH:1201:B
  SciTegic06061712563D

 23 26  0  0  0  0            999 V2000
    9.4964   43.1132   37.4063 C   0  0
    8.4926   44.2122   37.7955 C   0  0
    9.2374   45.5676   37.8297 C   0  0
    9.6160   46.1112   36.4338 C   0  0
    8.5318   45.8826   35.4598 N   0  0
    7.8528   44.5709   35.4008 C   0  0
    7.3278   44.2162   36.7891 C   0  0
    8.0752   47.0786   34.4074 S   0  0
    7.7501   48.2046   35.2087 O   0  0
    9.1670   47.1585   33.5050 O   0  0
    6.5575   46.4651   33.6246 C   0  0
    7.8992   43.9261   39.1191 N   0  0
    8.2125   42.8516   39.9032 C   0  0
    7.5217   42.8712   41.0027 N   0  0
    6.7195   43.9680   41.0164 C   0  0
    6.9470   44.6682   39.8054 C   0  0
    6.2180   45.8680   39.5977 C   0  0
    6.1550   46.8724   38.5334 C   0  0
    5.2618   47.8002   38.9090 C   0  0
    4.7397   47.4783   40.1332 N   0  0
    5.3016   46.3067   40.5918 C   0  0
    5.1239   45.5904   41.7163 N   0  0
    5.7937   44.4773   41.9468 C   0  0
  1  2  1  0
  2  3  1  0
  3  4  1  0
  4  5  1  0
  5  6  1  0
  2  7  1  0
  6  7  1  0
  5  8  1  0
  8  9  2  0
  8 10  2  0
  8 11  1  0
  2 12  1  0
 12 13  1  0
 13 14  2  0
 14 15  1  0
 12 16  1  0
 15 16  2  0
 16 17  1  0
 17 18  1  0
 18 19  2  0
 19 20  1  0
 17 21  2  0
 20 21  1  0
 21 22  1  0
 15 23  1  0
 22 23  2  0
M  END
> <CAVITY_ID>
15651116

> <CAVITY_NUMBER>
5

> <SMALL_MOL_CONF_ID>
2101326

> <LIG_CHAIN_CODE>
B

> <LIG_RES_NUMBER>
1201

> <LIG_RES_CODE>
0NH

> <MOLECULE_INCHI_AUX_INFO>
AuxInfo=1/1/N:1,11,18,3,7,19,4,6,23,13,17,15,16,21,2,20,22,14,5,12,9,10,8/E:(4,5)(7,8)(21,22)/CRV:23.6/rA:23CCCCNCCSOOCNCNCCCCCNCNC/rB:s1;s2;s3;s4;s5;s2s6;s5;d8;d8;s8;s2;s12;d-13;s14;s12d-15;s16;s17;d
-18;s19;d+17s20;s21;s15d-22;/rC:12.235,-47.256,-41.465;10.823,-47.736,-41.843;10.607,-47.484,-43.354;11.407,-48.437,-44.27;11.408,-49.813,-43.738;11.659,-50.052,-42.301;10.677,-49.224,-41.477;11.151,-
51.107,-44.741;9.913,-50.861,-45.391;12.341,-51.169,-45.511;10.953,-52.531,-43.634;9.802,-47.011,-41.057;10.067,-46.033,-40.14;8.966,-45.592,-39.611;7.906,-46.244,-40.157;8.423,-47.169,-41.098;7.49,-4
7.967,-41.81;7.585,-49.002,-42.842;6.336,-49.398,-43.13;5.437,-48.702,-42.367;6.101,-47.813,-41.55;5.675,-46.923,-40.636;6.514,-46.157,-39.965;

> <PDB_CODE>
4e4m

> <TITLE>
JAK2 KINASE (JH1 DOMAIN) IN COMPLEX WITH COMPOUND 30

> <Name>
4e4m:0NH:1201:B

> <atname>

$$$$
